<?xml version="1.0" encoding="utf-8"?>
<!DOCTYPE transitSchedule SYSTEM "http://www.matsim.org/files/dtd/transitSchedule_v1.dtd">

<transitSchedule>
  <transitStops>
    <stopFacility id="SF_SHP_1007_I_1366" x="3422579.404461485" y="1881371.0578474435" linkRefId="SHP_1007_I_1366_2004"/>
    <stopFacility id="SF_SHP_1007_I_2004" x="3422793.434699223" y="1881418.538314268" linkRefId="SHP_1007_I_2004_2005"/>
    <stopFacility id="SF_SHP_1007_I_2005" x="3422796.395362111" y="1881231.847463153" linkRefId="SHP_1007_I_2005_2006"/>
    <stopFacility id="SF_SHP_1007_I_2006" x="3422949.296897729" y="1881156.3727203945" linkRefId="SHP_1007_I_2006_2007"/>
    <stopFacility id="SF_SHP_1007_I_2007" x="3423190.8061549542" y="1881135.571638133" linkRefId="SHP_1007_I_2007_1223"/>
    <stopFacility id="SF_SHP_1007_I_1223" x="3423484.9907875126" y="1881080.8553670214" linkRefId="SHP_1007_I_1223_498"/>
    <stopFacility id="SF_SHP_1007_I_498" x="3423478.5434820345" y="1880912.6420051893" linkRefId="SHP_1007_I_498_529"/>
    <stopFacility id="SF_SHP_1007_I_529" x="3423737.969722025" y="1880663.6399503306" linkRefId="SHP_1007_I_529_530"/>
    <stopFacility id="SF_SHP_1007_I_530" x="3423995.6032974315" y="1880642.97107474" linkRefId="SHP_1007_I_530_531"/>
    <stopFacility id="SF_SHP_1007_I_531" x="3424250.556555641" y="1880620.68979801" linkRefId="SHP_1007_I_531_532"/>
    <stopFacility id="SF_SHP_1007_I_532" x="3424678.9136204845" y="1880584.6795855982" linkRefId="SHP_1007_I_532_533"/>
    <stopFacility id="SF_SHP_1007_I_533" x="3424924.5654490376" y="1880563.1539047272" linkRefId="SHP_1007_I_533_744"/>
    <stopFacility id="SF_SHP_1007_I_744" x="3425156.7889480796" y="1880742.2545330492" linkRefId="SHP_1007_I_744_761"/>
    <stopFacility id="SF_SHP_1007_I_761" x="3425287.6521999496" y="1880724.0873960475" linkRefId="SHP_1007_I_761_816"/>
    <stopFacility id="SF_SHP_1007_I_816" x="3425659.506338503" y="1880742.6037638441" linkRefId="SHP_1007_I_816_2210"/>
    <stopFacility id="SF_SHP_1007_I_2210" x="3425864.7283421536" y="1881011.1966380395" linkRefId="SHP_1007_I_2210_2314"/>
    <stopFacility id="SF_SHP_1007_I_2314" x="3425977.5159298964" y="1881013.1269252326" linkRefId="SHP_1007_I_2314_2280"/>
    <stopFacility id="SF_SHP_1007_I_2280" x="3426171.992831095" y="1881082.619269745" linkRefId="SHP_1007_I_2280_2281"/>
    <stopFacility id="SF_SHP_1007_I_2281" x="3426544.7270709416" y="1881151.060012476" linkRefId="SHP_1007_I_2281_2257"/>
    <stopFacility id="SF_SHP_1007_I_2257" x="3426703.6629779385" y="1881206.986779627" linkRefId="SHP_1007_I_2257_1245"/>
    <stopFacility id="SF_SHP_1007_I_1245" x="3427167.396353628" y="1881337.312735198" linkRefId="SHP_1007_I_1245_337"/>
    <stopFacility id="SF_SHP_1007_I_337" x="3427347.8528503785" y="1881592.9091743203" linkRefId="SHP_1007_I_337_166"/>
    <stopFacility id="SF_SHP_1007_I_166" x="3427474.940187118" y="1881704.4441502008" linkRefId="SHP_1007_I_166_167"/>
    <stopFacility id="SF_SHP_1007_I_167" x="3427656.2590931747" y="1881607.4037719152" linkRefId="SHP_1007_I_167_168"/>
    <stopFacility id="SF_SHP_1007_I_168" x="3427841.7881768355" y="1881506.5070631378" linkRefId="SHP_1007_I_168_169"/>
    <stopFacility id="SF_SHP_1007_I_169" x="3428016.2668249886" y="1881445.822106547" linkRefId="SHP_1007_I_169_115"/>
    <stopFacility id="SF_SHP_1007_I_115" x="3428320.3680758853" y="1881289.784093559" linkRefId="SHP_1007_I_115_116"/>
    <stopFacility id="SF_SHP_1007_I_116" x="3428493.5620218534" y="1881192.9511390212" linkRefId="SHP_1007_I_116_117"/>
    <stopFacility id="SF_SHP_1007_I_117" x="3428666.974767708" y="1881278.5587861082" linkRefId="SHP_1007_I_117_1096"/>
    <stopFacility id="SF_SHP_1007_I_1096" x="3428766.961188366" y="1881472.543161392" linkRefId="SHP_1007_I_1096_1283"/>
    <stopFacility id="SF_SHP_1007_I_1283" x="3428877.8408579887" y="1881712.0580745302" linkRefId="SHP_1007_I_1283_1282"/>
    <stopFacility id="SF_SHP_1007_I_1282" x="3428844.650507863" y="1881731.3018750448" linkRefId="SHP_1007_I_1283_1282"/>
    <stopFacility id="SF_SHP_1007_V_1282" x="3428844.650507863" y="1881731.3018750448" linkRefId="SHP_1007_V_1282_1114"/>
    <stopFacility id="SF_SHP_1007_V_1114" x="3428712.1942846146" y="1881460.0085053607" linkRefId="SHP_1007_V_1114_112"/>
    <stopFacility id="SF_SHP_1007_V_112" x="3428632.577946878" y="1881292.7713119797" linkRefId="SHP_1007_V_112_113"/>
    <stopFacility id="SF_SHP_1007_V_113" x="3428534.420842834" y="1881205.6341656" linkRefId="SHP_1007_V_113_114"/>
    <stopFacility id="SF_SHP_1007_V_114" x="3428320.595498125" y="1881320.1046217615" linkRefId="SHP_1007_V_114_154"/>
    <stopFacility id="SF_SHP_1007_V_154" x="3428098.9574709116" y="1881436.0773886957" linkRefId="SHP_1007_V_154_155"/>
    <stopFacility id="SF_SHP_1007_V_155" x="3427915.3420452583" y="1881565.219858615" linkRefId="SHP_1007_V_155_158"/>
    <stopFacility id="SF_SHP_1007_V_158" x="3427597.157253406" y="1881740.8092817902" linkRefId="SHP_1007_V_158_160"/>
    <stopFacility id="SF_SHP_1007_V_160" x="3427327.8308525933" y="1881886.3066443943" linkRefId="SHP_1007_V_160_162"/>
    <stopFacility id="SF_SHP_1007_V_162" x="3427150.1887466507" y="1881981.43822016" linkRefId="SHP_1007_V_162_224"/>
    <stopFacility id="SF_SHP_1007_V_224" x="3426952.5011243257" y="1881762.4971956874" linkRefId="SHP_1007_V_224_2223"/>
    <stopFacility id="SF_SHP_1007_V_2223" x="3426719.472351484" y="1881405.8074831043" linkRefId="SHP_1007_V_2223_2258"/>
    <stopFacility id="SF_SHP_1007_V_2258" x="3426727.119208804" y="1881135.8604337478" linkRefId="SHP_1007_V_2258_2259"/>
    <stopFacility id="SF_SHP_1007_V_2259" x="3426554.008717347" y="1880990.6383337376" linkRefId="SHP_1007_V_2259_2260"/>
    <stopFacility id="SF_SHP_1007_V_2260" x="3426340.8188872826" y="1880839.938109354" linkRefId="SHP_1007_V_2260_2277"/>
    <stopFacility id="SF_SHP_1007_V_2277" x="3425895.4339464637" y="1880863.2587646174" linkRefId="SHP_1007_V_2277_814"/>
    <stopFacility id="SF_SHP_1007_V_814" x="3425601.894917967" y="1880922.9229192813" linkRefId="SHP_1007_V_814_739"/>
    <stopFacility id="SF_SHP_1007_V_739" x="3425414.2039904296" y="1880721.7194146067" linkRefId="SHP_1007_V_739_741"/>
    <stopFacility id="SF_SHP_1007_V_741" x="3425220.345017023" y="1880490.4837145829" linkRefId="SHP_1007_V_741_1691"/>
    <stopFacility id="SF_SHP_1007_V_1691" x="3425052.654042165" y="1880487.402581746" linkRefId="SHP_1007_V_1691_534"/>
    <stopFacility id="SF_SHP_1007_V_534" x="3424891.732047307" y="1880595.4685454941" linkRefId="SHP_1007_V_534_535"/>
    <stopFacility id="SF_SHP_1007_V_535" x="3424558.419905928" y="1880624.0511249504" linkRefId="SHP_1007_V_535_511"/>
    <stopFacility id="SF_SHP_1007_V_511" x="3424253.2291980432" y="1880649.185192799" linkRefId="SHP_1007_V_511_512"/>
    <stopFacility id="SF_SHP_1007_V_512" x="3424024.1598583446" y="1880664.4400455062" linkRefId="SHP_1007_V_512_513"/>
    <stopFacility id="SF_SHP_1007_V_513" x="3423740.0079569668" y="1880693.9087287742" linkRefId="SHP_1007_V_513_514"/>
    <stopFacility id="SF_SHP_1007_V_514" x="3423521.695744609" y="1880755.3671165686" linkRefId="SHP_1007_V_514_1369"/>
    <stopFacility id="SF_SHP_1007_V_1369" x="3423508.689805653" y="1881122.9430610144" linkRefId="SHP_1007_V_1369_1370"/>
    <stopFacility id="SF_SHP_1007_V_1370" x="3423193.7697091997" y="1881143.3305797614" linkRefId="SHP_1007_V_1370_2008"/>
    <stopFacility id="SF_SHP_1007_V_2008" x="3422927.1605537743" y="1881168.0980010498" linkRefId="SHP_1007_V_2008_493"/>
    <stopFacility id="SF_SHP_1007_V_493" x="3422740.287901533" y="1881209.081446189" linkRefId="SHP_1007_V_493_1366"/>
    <stopFacility id="SF_SHP_1007_V_1366" x="3422579.404461485" y="1881371.0578474435" linkRefId="SHP_1007_V_493_1366"/>
    <stopFacility id="SF_SHP_1017_I_2403" x="3426115.5569832358" y="1881099.4709144672" linkRefId="SHP_1017_I_2403_2281"/>
    <stopFacility id="SF_SHP_1017_I_2281" x="3426544.7270709416" y="1881151.060012476" linkRefId="SHP_1017_I_2281_2250"/>
    <stopFacility id="SF_SHP_1017_I_2250" x="3426854.1964122555" y="1881141.554868229" linkRefId="SHP_1017_I_2250_2206"/>
    <stopFacility id="SF_SHP_1017_I_2206" x="3427001.332177659" y="1881010.8663799323" linkRefId="SHP_1017_I_2206_1615"/>
    <stopFacility id="SF_SHP_1017_I_1615" x="3427469.9698673426" y="1880647.4276699836" linkRefId="SHP_1017_I_1615_1616"/>
    <stopFacility id="SF_SHP_1017_I_1616" x="3427794.8766090283" y="1880464.448177055" linkRefId="SHP_1017_I_1616_1617"/>
    <stopFacility id="SF_SHP_1017_I_1617" x="3428065.398528074" y="1880317.039619051" linkRefId="SHP_1017_I_1617_1618"/>
    <stopFacility id="SF_SHP_1017_I_1618" x="3428213.667047646" y="1880236.8146690892" linkRefId="SHP_1017_I_1618_1619"/>
    <stopFacility id="SF_SHP_1017_I_1619" x="3428441.3381412625" y="1880113.9562477153" linkRefId="SHP_1017_I_1619_2027"/>
    <stopFacility id="SF_SHP_1017_I_2027" x="3428757.342936641" y="1879947.0306603326" linkRefId="SHP_1017_I_2027_1621"/>
    <stopFacility id="SF_SHP_1017_I_1621" x="3428949.3785683783" y="1879834.968361848" linkRefId="SHP_1017_I_1621_1622"/>
    <stopFacility id="SF_SHP_1017_I_1622" x="3429165.622266742" y="1879725.1840168198" linkRefId="SHP_1017_I_1622_1623"/>
    <stopFacility id="SF_SHP_1017_I_1623" x="3429440.7490563835" y="1879570.9039692045" linkRefId="SHP_1017_I_1623_1624"/>
    <stopFacility id="SF_SHP_1017_I_1624" x="3429650.9141606763" y="1879454.8732903162" linkRefId="SHP_1017_I_1624_58"/>
    <stopFacility id="SF_SHP_1017_I_58" x="3429710.5857263906" y="1879259.726909775" linkRefId="SHP_1017_I_58_59"/>
    <stopFacility id="SF_SHP_1017_I_59" x="3429805.9358583326" y="1879027.869572604" linkRefId="SHP_1017_I_59_60"/>
    <stopFacility id="SF_SHP_1017_I_60" x="3429796.633859717" y="1878821.7672242802" linkRefId="SHP_1017_I_60_61"/>
    <stopFacility id="SF_SHP_1017_I_61" x="3429502.702954615" y="1878576.9060280323" linkRefId="SHP_1017_I_61_62"/>
    <stopFacility id="SF_SHP_1017_I_62" x="3429438.9609939894" y="1878395.9108148417" linkRefId="SHP_1017_I_62_1980"/>
    <stopFacility id="SF_SHP_1017_I_1980" x="3429377.0433533452" y="1878214.9221127732" linkRefId="SHP_1017_I_1980_2224"/>
    <stopFacility id="SF_SHP_1017_I_2224" x="3429255.3144446015" y="1878125.7839646933" linkRefId="SHP_1017_I_2224_66"/>
    <stopFacility id="SF_SHP_1017_I_66" x="3429274.35548424" y="1877816.0520861242" linkRefId="SHP_1017_I_66_2122"/>
    <stopFacility id="SF_SHP_1017_I_2122" x="3429436.5003289743" y="1877766.29684877" linkRefId="SHP_1017_I_2122_1310"/>
    <stopFacility id="SF_SHP_1017_I_1310" x="3429690.3857653392" y="1877912.4486459407" linkRefId="SHP_1017_I_1310_1585"/>
    <stopFacility id="SF_SHP_1017_I_1585" x="3429605.201465733" y="1878064.5182880105" linkRefId="SHP_1017_I_1310_1585"/>
    <stopFacility id="SF_SHP_1017_V_1585" x="3429605.201465733" y="1878064.5182880105" linkRefId="SHP_1017_V_1585_1981"/>
    <stopFacility id="SF_SHP_1017_V_1981" x="3429502.3149427343" y="1878188.2902435034" linkRefId="SHP_1017_V_1981_70"/>
    <stopFacility id="SF_SHP_1017_V_70" x="3429591.3372317576" y="1878410.9532966285" linkRefId="SHP_1017_V_70_1919"/>
    <stopFacility id="SF_SHP_1017_V_1919" x="3429640.2160306233" y="1878549.0516658756" linkRefId="SHP_1017_V_1919_1306"/>
    <stopFacility id="SF_SHP_1017_V_1306" x="3429862.9117186437" y="1878876.131657963" linkRefId="SHP_1017_V_1306_1590"/>
    <stopFacility id="SF_SHP_1017_V_1590" x="3429589.1084434697" y="1879374.6308752415" linkRefId="SHP_1017_V_1590_1591"/>
    <stopFacility id="SF_SHP_1017_V_1591" x="3429388.405118259" y="1879358.2763986737" linkRefId="SHP_1017_V_1591_1592"/>
    <stopFacility id="SF_SHP_1017_V_1592" x="3429115.674143266" y="1879422.9903243457" linkRefId="SHP_1017_V_1592_1593"/>
    <stopFacility id="SF_SHP_1017_V_1593" x="3429124.560752502" y="1879644.5485755198" linkRefId="SHP_1017_V_1593_1594"/>
    <stopFacility id="SF_SHP_1017_V_1594" x="3428954.735109558" y="1879755.4538974934" linkRefId="SHP_1017_V_1594_1595"/>
    <stopFacility id="SF_SHP_1017_V_1595" x="3428718.0994907757" y="1879929.9936637827" linkRefId="SHP_1017_V_1595_1596"/>
    <stopFacility id="SF_SHP_1017_V_1596" x="3428488.8596442537" y="1880078.7804491757" linkRefId="SHP_1017_V_1596_1597"/>
    <stopFacility id="SF_SHP_1017_V_1597" x="3428244.123959018" y="1880211.085306381" linkRefId="SHP_1017_V_1597_1598"/>
    <stopFacility id="SF_SHP_1017_V_1598" x="3428003.0279643536" y="1880340.4704073693" linkRefId="SHP_1017_V_1598_1599"/>
    <stopFacility id="SF_SHP_1017_V_1599" x="3427766.533282029" y="1880429.5229576943" linkRefId="SHP_1017_V_1599_1430"/>
    <stopFacility id="SF_SHP_1017_V_1430" x="3427427.5266516204" y="1880640.1139897415" linkRefId="SHP_1017_V_1430_764"/>
    <stopFacility id="SF_SHP_1017_V_764" x="3427130.6601868425" y="1880837.5335296795" linkRefId="SHP_1017_V_764_2251"/>
    <stopFacility id="SF_SHP_1017_V_2251" x="3426856.6788336374" y="1881157.602967306" linkRefId="SHP_1017_V_2251_2256"/>
    <stopFacility id="SF_SHP_1017_V_2256" x="3426717.530187782" y="1881219.2946878476" linkRefId="SHP_1017_V_2256_2227"/>
    <stopFacility id="SF_SHP_1017_V_2227" x="3426494.388174006" y="1881353.5665747619" linkRefId="SHP_1017_V_2227_2222"/>
    <stopFacility id="SF_SHP_1017_V_2222" x="3426189.565342244" y="1881448.804330618" linkRefId="SHP_1017_V_2222_2220"/>
    <stopFacility id="SF_SHP_1017_V_2220" x="3426079.1080693244" y="1881293.8624773852" linkRefId="SHP_1017_V_2220_2403"/>
    <stopFacility id="SF_SHP_1017_V_2403" x="3426115.5569832358" y="1881099.4709144672" linkRefId="SHP_1017_V_2220_2403"/>
    <stopFacility id="SF_SHP_1018_I_2277" x="3425895.4339464637" y="1880863.2587646174" linkRefId="SHP_1018_I_2277_1520"/>
    <stopFacility id="SF_SHP_1018_I_1520" x="3425714.0281425617" y="1880941.5568212867" linkRefId="SHP_1018_I_1520_1766"/>
    <stopFacility id="SF_SHP_1018_I_1766" x="3425489.0001989803" y="1881245.1031253128" linkRefId="SHP_1018_I_1766_792"/>
    <stopFacility id="SF_SHP_1018_I_792" x="3425509.430364518" y="1881576.1304694556" linkRefId="SHP_1018_I_792_793"/>
    <stopFacility id="SF_SHP_1018_I_793" x="3425512.3967291894" y="1881698.4933311986" linkRefId="SHP_1018_I_793_795"/>
    <stopFacility id="SF_SHP_1018_I_795" x="3425572.8638200257" y="1882005.5189378492" linkRefId="SHP_1018_I_795_796"/>
    <stopFacility id="SF_SHP_1018_I_796" x="3425668.054522548" y="1882235.8644402241" linkRefId="SHP_1018_I_796_1305"/>
    <stopFacility id="SF_SHP_1018_I_1305" x="3425849.442784205" y="1882328.2899338386" linkRefId="SHP_1018_I_1305_1959"/>
    <stopFacility id="SF_SHP_1018_I_1959" x="3426115.753475155" y="1882213.580483458" linkRefId="SHP_1018_I_1305_1959"/>
    <stopFacility id="SF_SHP_1018_V_1959" x="3426115.753475155" y="1882213.580483458" linkRefId="SHP_1018_V_1959_771"/>
    <stopFacility id="SF_SHP_1018_V_771" x="3426312.9801396215" y="1882043.5316606958" linkRefId="SHP_1018_V_771_773"/>
    <stopFacility id="SF_SHP_1018_V_773" x="3426628.5716261757" y="1881764.2597436516" linkRefId="SHP_1018_V_773_2223"/>
    <stopFacility id="SF_SHP_1018_V_2223" x="3426719.472351484" y="1881405.8074831043" linkRefId="SHP_1018_V_2223_2258"/>
    <stopFacility id="SF_SHP_1018_V_2258" x="3426727.119208804" y="1881135.8604337478" linkRefId="SHP_1018_V_2258_2259"/>
    <stopFacility id="SF_SHP_1018_V_2259" x="3426554.008717347" y="1880990.6383337376" linkRefId="SHP_1018_V_2259_2260"/>
    <stopFacility id="SF_SHP_1018_V_2260" x="3426340.8188872826" y="1880839.938109354" linkRefId="SHP_1018_V_2260_2277"/>
    <stopFacility id="SF_SHP_1018_V_2277" x="3425895.4339464637" y="1880863.2587646174" linkRefId="SHP_1018_V_2260_2277"/>
    <stopFacility id="SF_SHP_1019_I_2255" x="3426762.9562987913" y="1881208.7038516805" linkRefId="SHP_1019_I_2255_2259"/>
    <stopFacility id="SF_SHP_1019_I_2259" x="3426554.008717347" y="1880990.6383337376" linkRefId="SHP_1019_I_2259_2260"/>
    <stopFacility id="SF_SHP_1019_I_2260" x="3426340.8188872826" y="1880839.938109354" linkRefId="SHP_1019_I_2260_2330"/>
    <stopFacility id="SF_SHP_1019_I_2330" x="3425989.89756302" y="1880643.2334885525" linkRefId="SHP_1019_I_2330_2127"/>
    <stopFacility id="SF_SHP_1019_I_2127" x="3425756.4606823623" y="1880074.6039253266" linkRefId="SHP_1019_I_2127_2078"/>
    <stopFacility id="SF_SHP_1019_I_2078" x="3425878.0879555047" y="1879778.131543164" linkRefId="SHP_1019_I_2078_1819"/>
    <stopFacility id="SF_SHP_1019_I_1819" x="3425999.475255689" y="1879466.4737192537" linkRefId="SHP_1019_I_1819_1820"/>
    <stopFacility id="SF_SHP_1019_I_1820" x="3425898.044913447" y="1879274.3142451528" linkRefId="SHP_1019_I_1820_609"/>
    <stopFacility id="SF_SHP_1019_I_609" x="3425713.433146373" y="1879361.0482628401" linkRefId="SHP_1019_I_609_610"/>
    <stopFacility id="SF_SHP_1019_I_610" x="3425638.485436568" y="1879175.1330021084" linkRefId="SHP_1019_I_610_1091"/>
    <stopFacility id="SF_SHP_1019_I_1091" x="3425573.7971672867" y="1878953.9846647095" linkRefId="SHP_1019_I_1091_611"/>
    <stopFacility id="SF_SHP_1019_I_611" x="3425518.0201607705" y="1878778.792363833" linkRefId="SHP_1019_I_611_612"/>
    <stopFacility id="SF_SHP_1019_I_612" x="3425448.878546179" y="1878575.0318495887" linkRefId="SHP_1019_I_612_1946"/>
    <stopFacility id="SF_SHP_1019_I_1946" x="3425810.7477583727" y="1878297.4493145656" linkRefId="SHP_1019_I_612_1946"/>
    <stopFacility id="SF_SHP_1019_V_1946" x="3425810.7477583727" y="1878297.4493145656" linkRefId="SHP_1019_V_1946_1947"/>
    <stopFacility id="SF_SHP_1019_V_1947" x="3426306.1675487407" y="1878346.103082793" linkRefId="SHP_1019_V_1947_2158"/>
    <stopFacility id="SF_SHP_1019_V_2158" x="3426021.174082775" y="1878334.3703166193" linkRefId="SHP_1019_V_2158_2388"/>
    <stopFacility id="SF_SHP_1019_V_2388" x="3425639.6512149842" y="1878445.4404147987" linkRefId="SHP_1019_V_2388_1463"/>
    <stopFacility id="SF_SHP_1019_V_1463" x="3425477.55334712" y="1878565.6581196755" linkRefId="SHP_1019_V_1463_1464"/>
    <stopFacility id="SF_SHP_1019_V_1464" x="3425560.0265890355" y="1878830.1788113299" linkRefId="SHP_1019_V_1464_1465"/>
    <stopFacility id="SF_SHP_1019_V_1465" x="3425620.878678571" y="1878999.9217460968" linkRefId="SHP_1019_V_1465_2273"/>
    <stopFacility id="SF_SHP_1019_V_2273" x="3425828.573229613" y="1879148.6654235576" linkRefId="SHP_1019_V_2273_622"/>
    <stopFacility id="SF_SHP_1019_V_622" x="3425841.287749409" y="1879309.5360928548" linkRefId="SHP_1019_V_622_623"/>
    <stopFacility id="SF_SHP_1019_V_623" x="3425995.491911074" y="1879398.7931430254" linkRefId="SHP_1019_V_623_1436"/>
    <stopFacility id="SF_SHP_1019_V_1436" x="3426031.477208494" y="1879516.7467307337" linkRefId="SHP_1019_V_1436_2154"/>
    <stopFacility id="SF_SHP_1019_V_2154" x="3425926.9792332686" y="1879777.9116149938" linkRefId="SHP_1019_V_2154_2128"/>
    <stopFacility id="SF_SHP_1019_V_2128" x="3425805.1855511516" y="1880046.2683218706" linkRefId="SHP_1019_V_2128_2080"/>
    <stopFacility id="SF_SHP_1019_V_2080" x="3425926.7364657638" y="1880308.5185762595" linkRefId="SHP_1019_V_2080_830"/>
    <stopFacility id="SF_SHP_1019_V_830" x="3426224.3494981113" y="1880568.0127824426" linkRefId="SHP_1019_V_830_2261"/>
    <stopFacility id="SF_SHP_1019_V_2261" x="3426048.0426073237" y="1880788.225359419" linkRefId="SHP_1019_V_2261_2219"/>
    <stopFacility id="SF_SHP_1019_V_2219" x="3426138.047417745" y="1881064.649327361" linkRefId="SHP_1019_V_2219_2281"/>
    <stopFacility id="SF_SHP_1019_V_2281" x="3426544.7270709416" y="1881151.060012476" linkRefId="SHP_1019_V_2281_2255"/>
    <stopFacility id="SF_SHP_1019_V_2255" x="3426762.9562987913" y="1881208.7038516805" linkRefId="SHP_1019_V_2281_2255"/>
    <stopFacility id="SF_SHP_1020_I_2380" x="3423985.0182834817" y="1879649.6266208922" linkRefId="SHP_1020_I_2380_2381"/>
    <stopFacility id="SF_SHP_1020_I_2381" x="3424199.8352771383" y="1879775.2996545988" linkRefId="SHP_1020_I_2381_2382"/>
    <stopFacility id="SF_SHP_1020_I_2382" x="3424405.3662096015" y="1879961.3967028423" linkRefId="SHP_1020_I_2382_552"/>
    <stopFacility id="SF_SHP_1020_I_552" x="3424597.375473712" y="1880123.4240610346" linkRefId="SHP_1020_I_552_554"/>
    <stopFacility id="SF_SHP_1020_I_554" x="3424785.7481469205" y="1880316.287699473" linkRefId="SHP_1020_I_554_555"/>
    <stopFacility id="SF_SHP_1020_I_555" x="3424962.643639153" y="1880520.2455336382" linkRefId="SHP_1020_I_555_744"/>
    <stopFacility id="SF_SHP_1020_I_744" x="3425156.7889480796" y="1880742.2545330492" linkRefId="SHP_1020_I_744_745"/>
    <stopFacility id="SF_SHP_1020_I_745" x="3425350.1421808396" y="1880973.591853242" linkRefId="SHP_1020_I_745_1766"/>
    <stopFacility id="SF_SHP_1020_I_1766" x="3425489.0001989803" y="1881245.1031253128" linkRefId="SHP_1020_I_1766_2287"/>
    <stopFacility id="SF_SHP_1020_I_2287" x="3425783.691469338" y="1881404.3912461973" linkRefId="SHP_1020_I_2287_2290"/>
    <stopFacility id="SF_SHP_1020_I_2290" x="3425818.1390048247" y="1881256.9183861036" linkRefId="SHP_1020_I_2290_2312"/>
    <stopFacility id="SF_SHP_1020_I_2312" x="3425946.0420649163" y="1880900.2937587793" linkRefId="SHP_1020_I_2312_2219"/>
    <stopFacility id="SF_SHP_1020_I_2219" x="3426138.047417745" y="1881064.649327361" linkRefId="SHP_1020_I_2219_2281"/>
    <stopFacility id="SF_SHP_1020_I_2281" x="3426544.7270709416" y="1881151.060012476" linkRefId="SHP_1020_I_2281_2257"/>
    <stopFacility id="SF_SHP_1020_I_2257" x="3426703.6629779385" y="1881206.986779627" linkRefId="SHP_1020_I_2257_1020"/>
    <stopFacility id="SF_SHP_1020_I_1020" x="3427134.836034334" y="1881362.878661423" linkRefId="SHP_1020_I_1020_1021"/>
    <stopFacility id="SF_SHP_1020_I_1021" x="3426997.953396928" y="1881653.9782230237" linkRefId="SHP_1020_I_1021_338"/>
    <stopFacility id="SF_SHP_1020_I_338" x="3426649.0827762117" y="1881991.9279155592" linkRefId="SHP_1020_I_338_2231"/>
    <stopFacility id="SF_SHP_1020_I_2231" x="3426751.452371773" y="1882291.564274533" linkRefId="SHP_1020_I_2231_2232"/>
    <stopFacility id="SF_SHP_1020_I_2232" x="3426884.7204853897" y="1882527.2627493697" linkRefId="SHP_1020_I_2232_215"/>
    <stopFacility id="SF_SHP_1020_I_215" x="3427051.2377942344" y="1882823.4100914507" linkRefId="SHP_1020_I_215_1681"/>
    <stopFacility id="SF_SHP_1020_I_1681" x="3426959.1789836558" y="1883032.6215772748" linkRefId="SHP_1020_I_1681_197"/>
    <stopFacility id="SF_SHP_1020_I_197" x="3426824.059316235" y="1883205.7079149918" linkRefId="SHP_1020_I_197_198"/>
    <stopFacility id="SF_SHP_1020_I_198" x="3426802.8166990518" y="1883434.9700047388" linkRefId="SHP_1020_I_198_199"/>
    <stopFacility id="SF_SHP_1020_I_199" x="3426930.586928963" y="1883635.6986115852" linkRefId="SHP_1020_I_199_200"/>
    <stopFacility id="SF_SHP_1020_I_200" x="3427090.266422237" y="1883812.377496383" linkRefId="SHP_1020_I_200_1229"/>
    <stopFacility id="SF_SHP_1020_I_1229" x="3427102.9149511675" y="1883924.7592559329" linkRefId="SHP_1020_I_200_1229"/>
    <stopFacility id="SF_SHP_1020_V_1229" x="3427102.9149511675" y="1883924.7592559329" linkRefId="SHP_1020_V_1229_202"/>
    <stopFacility id="SF_SHP_1020_V_202" x="3427000.256312285" y="1883886.8449727267" linkRefId="SHP_1020_V_202_1838"/>
    <stopFacility id="SF_SHP_1020_V_1838" x="3426902.2640561108" y="1883702.5011243483" linkRefId="SHP_1020_V_1838_1839"/>
    <stopFacility id="SF_SHP_1020_V_1839" x="3427088.4168872223" y="1883476.6431297339" linkRefId="SHP_1020_V_1839_1080"/>
    <stopFacility id="SF_SHP_1020_V_1080" x="3426874.0029633436" y="1883281.3683530123" linkRefId="SHP_1020_V_1080_1277"/>
    <stopFacility id="SF_SHP_1020_V_1277" x="3426841.8933445048" y="1883136.3532334021" linkRefId="SHP_1020_V_1277_207"/>
    <stopFacility id="SF_SHP_1020_V_207" x="3426967.4275252796" y="1882977.850642554" linkRefId="SHP_1020_V_207_2233"/>
    <stopFacility id="SF_SHP_1020_V_2233" x="3426805.397643053" y="1882782.845458353" linkRefId="SHP_1020_V_2233_2234"/>
    <stopFacility id="SF_SHP_1020_V_2234" x="3426583.3541097185" y="1882426.6497374976" linkRefId="SHP_1020_V_2234_2032"/>
    <stopFacility id="SF_SHP_1020_V_2032" x="3426392.0856304006" y="1881991.1415697045" linkRefId="SHP_1020_V_2032_773"/>
    <stopFacility id="SF_SHP_1020_V_773" x="3426628.5716261757" y="1881764.2597436516" linkRefId="SHP_1020_V_773_2404"/>
    <stopFacility id="SF_SHP_1020_V_2404" x="3426702.772257924" y="1881420.5070683174" linkRefId="SHP_1020_V_2404_2227"/>
    <stopFacility id="SF_SHP_1020_V_2227" x="3426494.388174006" y="1881353.5665747619" linkRefId="SHP_1020_V_2227_2222"/>
    <stopFacility id="SF_SHP_1020_V_2222" x="3426189.565342244" y="1881448.804330618" linkRefId="SHP_1020_V_2222_2220"/>
    <stopFacility id="SF_SHP_1020_V_2220" x="3426079.1080693244" y="1881293.8624773852" linkRefId="SHP_1020_V_2220_2221"/>
    <stopFacility id="SF_SHP_1020_V_2221" x="3426128.161891219" y="1881048.5277647502" linkRefId="SHP_1020_V_2221_2277"/>
    <stopFacility id="SF_SHP_1020_V_2277" x="3425895.4339464637" y="1880863.2587646174" linkRefId="SHP_1020_V_2277_814"/>
    <stopFacility id="SF_SHP_1020_V_814" x="3425601.894917967" y="1880922.9229192813" linkRefId="SHP_1020_V_814_739"/>
    <stopFacility id="SF_SHP_1020_V_739" x="3425414.2039904296" y="1880721.7194146067" linkRefId="SHP_1020_V_739_741"/>
    <stopFacility id="SF_SHP_1020_V_741" x="3425220.345017023" y="1880490.4837145829" linkRefId="SHP_1020_V_741_546"/>
    <stopFacility id="SF_SHP_1020_V_546" x="3425040.9927683305" y="1880294.3722013196" linkRefId="SHP_1020_V_546_548"/>
    <stopFacility id="SF_SHP_1020_V_548" x="3424899.464838287" y="1880134.7313102668" linkRefId="SHP_1020_V_548_549"/>
    <stopFacility id="SF_SHP_1020_V_549" x="3424803.6792972162" y="1880185.3683377386" linkRefId="SHP_1020_V_549_550"/>
    <stopFacility id="SF_SHP_1020_V_550" x="3424579.942433931" y="1880345.8748834166" linkRefId="SHP_1020_V_550_2383"/>
    <stopFacility id="SF_SHP_1020_V_2383" x="3424399.088793587" y="1880165.5609418412" linkRefId="SHP_1020_V_2383_2384"/>
    <stopFacility id="SF_SHP_1020_V_2384" x="3424211.5354227056" y="1880018.579310834" linkRefId="SHP_1020_V_2384_2385"/>
    <stopFacility id="SF_SHP_1020_V_2385" x="3423995.231794225" y="1879813.6412397597" linkRefId="SHP_1020_V_2385_2380"/>
    <stopFacility id="SF_SHP_1020_V_2380" x="3423985.0182834817" y="1879649.6266208922" linkRefId="SHP_1020_V_2385_2380"/>
    <stopFacility id="SF_SHP_1021_I_2250" x="3426854.1964122555" y="1881141.554868229" linkRefId="SHP_1021_I_2250_777"/>
    <stopFacility id="SF_SHP_1021_I_777" x="3427070.412726514" y="1880872.2825969672" linkRefId="SHP_1021_I_777_1427"/>
    <stopFacility id="SF_SHP_1021_I_1427" x="3427202.0563542238" y="1880497.4298161443" linkRefId="SHP_1021_I_1427_1428"/>
    <stopFacility id="SF_SHP_1021_I_1428" x="3427296.6849853992" y="1880163.4880953399" linkRefId="SHP_1021_I_1428_1664"/>
    <stopFacility id="SF_SHP_1021_I_1664" x="3427344.497065434" y="1879956.7869851012" linkRefId="SHP_1021_I_1664_1765"/>
    <stopFacility id="SF_SHP_1021_I_1765" x="3427468.975029526" y="1879662.4284607384" linkRefId="SHP_1021_I_1765_2041"/>
    <stopFacility id="SF_SHP_1021_I_2041" x="3427590.9283426865" y="1879375.0412548129" linkRefId="SHP_1021_I_2041_1416"/>
    <stopFacility id="SF_SHP_1021_I_1416" x="3427486.188368948" y="1879285.2619856484" linkRefId="SHP_1021_I_1416_1417"/>
    <stopFacility id="SF_SHP_1021_I_1417" x="3427222.889545869" y="1879183.9599319682" linkRefId="SHP_1021_I_1417_649"/>
    <stopFacility id="SF_SHP_1021_I_649" x="3427001.1688958043" y="1879107.475795337" linkRefId="SHP_1021_I_649_650"/>
    <stopFacility id="SF_SHP_1021_I_650" x="3426759.1597514213" y="1879015.6825800175" linkRefId="SHP_1021_I_650_1141"/>
    <stopFacility id="SF_SHP_1021_I_1141" x="3426573.1984010856" y="1878943.4223609515" linkRefId="SHP_1021_I_1141_630"/>
    <stopFacility id="SF_SHP_1021_I_630" x="3426395.698126549" y="1878786.7197882347" linkRefId="SHP_1021_I_630_882"/>
    <stopFacility id="SF_SHP_1021_I_882" x="3426462.5399169032" y="1878610.82775133" linkRefId="SHP_1021_I_882_631"/>
    <stopFacility id="SF_SHP_1021_I_631" x="3426560.195742599" y="1878348.5074109237" linkRefId="SHP_1021_I_631_632"/>
    <stopFacility id="SF_SHP_1021_I_632" x="3426482.321259062" y="1878142.7405356534" linkRefId="SHP_1021_I_632_1143"/>
    <stopFacility id="SF_SHP_1021_I_1143" x="3426420.045217709" y="1877947.5445955957" linkRefId="SHP_1021_I_1143_1940"/>
    <stopFacility id="SF_SHP_1021_I_1940" x="3426359.8570806207" y="1877880.8545669548" linkRefId="SHP_1021_I_1143_1940"/>
    <stopFacility id="SF_SHP_1021_V_1940" x="3426359.8570806207" y="1877880.8545669548" linkRefId="SHP_1021_V_1940_634"/>
    <stopFacility id="SF_SHP_1021_V_634" x="3426500.0700441403" y="1878138.6426595382" linkRefId="SHP_1021_V_634_635"/>
    <stopFacility id="SF_SHP_1021_V_635" x="3426577.7556850654" y="1878355.739098479" linkRefId="SHP_1021_V_635_636"/>
    <stopFacility id="SF_SHP_1021_V_636" x="3426482.383103166" y="1878616.6848421167" linkRefId="SHP_1021_V_636_637"/>
    <stopFacility id="SF_SHP_1021_V_637" x="3426405.5079526543" y="1878812.3091533098" linkRefId="SHP_1021_V_637_652"/>
    <stopFacility id="SF_SHP_1021_V_652" x="3426494.278717322" y="1878888.4567348037" linkRefId="SHP_1021_V_652_653"/>
    <stopFacility id="SF_SHP_1021_V_653" x="3426696.028975539" y="1878961.9060717477" linkRefId="SHP_1021_V_653_654"/>
    <stopFacility id="SF_SHP_1021_V_654" x="3427018.5926285516" y="1879081.8646859687" linkRefId="SHP_1021_V_654_1418"/>
    <stopFacility id="SF_SHP_1021_V_1418" x="3427230.99505884" y="1879164.5284129565" linkRefId="SHP_1021_V_1418_1419"/>
    <stopFacility id="SF_SHP_1021_V_1419" x="3427584.2185963434" y="1879301.3549472347" linkRefId="SHP_1021_V_1419_2054"/>
    <stopFacility id="SF_SHP_1021_V_2054" x="3427646.2864510003" y="1879405.944068534" linkRefId="SHP_1021_V_2054_679"/>
    <stopFacility id="SF_SHP_1021_V_679" x="3427312.4297918454" y="1879591.7736512313" linkRefId="SHP_1021_V_679_680"/>