<?xml version="1.0" encoding="utf-8"?>
<!DOCTYPE transitSchedule SYSTEM "http://www.matsim.org/files/dtd/transitSchedule_v1.dtd">

<transitSchedule>
  <transitStops>
    <stopFacility id="10" x="3430171.587913964" y="1880191.5100236356" linkRefId="10_10X"/>
    <stopFacility id="1007" x="3428483.3071411797" y="1878613.5053910448" linkRefId="1007_1007X"/>
    <stopFacility id="1008" x="3428545.2158838036" y="1878434.1118156794" linkRefId="1008_1008X"/>
    <stopFacility id="1009" x="3428561.3498430853" y="1878255.9621403532" linkRefId="1009_1009X"/>
    <stopFacility id="1010" x="3428513.6692417073" y="1877843.3295741181" linkRefId="1010_1010X"/>
    <stopFacility id="1012" x="3428502.365994132" y="1877532.531451556" linkRefId="1012_1012X"/>
    <stopFacility id="1013" x="3428541.3863184713" y="1877843.055061272" linkRefId="1013_1013X"/>
    <stopFacility id="1014" x="3428575.2272379105" y="1878252.7582099135" linkRefId="1014_1014X"/>
    <stopFacility id="1015" x="3428559.76269972" y="1878419.9905166156" linkRefId="1015_1015X"/>
    <stopFacility id="1016" x="3428497.601659517" y="1878611.1979568582" linkRefId="1016_1016X"/>
    <stopFacility id="1020" x="3427134.836034334" y="1881362.878661423" linkRefId="1020_1020X"/>
    <stopFacility id="1021" x="3426997.953396928" y="1881653.9782230237" linkRefId="1021_1021X"/>
    <stopFacility id="1026" x="3426921.006179271" y="1876755.511584814" linkRefId="1026_1026X"/>
    <stopFacility id="1027" x="3426749.86918946" y="1876778.8296544172" linkRefId="1027_1027X"/>
    <stopFacility id="1028" x="3426627.650829304" y="1876468.4049495473" linkRefId="1028_1028X"/>
    <stopFacility id="1029" x="3426542.782494552" y="1876157.156177894" linkRefId="1029_1029X"/>
    <stopFacility id="1030" x="3426535.291313584" y="1875921.4520897088" linkRefId="1030_1030X"/>
    <stopFacility id="1032" x="3427737.480909473" y="1882197.6728585968" linkRefId="1032_1032X"/>
    <stopFacility id="1035" x="3427622.0716507114" y="1880941.5068470354" linkRefId="1035_1035X"/>
    <stopFacility id="1036" x="3424977.146282156" y="1879599.1762808694" linkRefId="1036_1036X"/>
    <stopFacility id="1038" x="3424285.184566092" y="1880576.6005408952" linkRefId="1038_1038X"/>
    <stopFacility id="1039" x="3427785.9667999567" y="1881089.3294920044" linkRefId="1039_1039X"/>
    <stopFacility id="1041" x="3425533.3572631157" y="1880691.744611281" linkRefId="1041_1041X"/>
    <stopFacility id="1042" x="3427128.7261077445" y="1880119.830011916" linkRefId="1042_1042X"/>
    <stopFacility id="1044" x="3423156.896583449" y="1885681.546822661" linkRefId="1044_1044X"/>
    <stopFacility id="1050" x="3429888.2880229186" y="1880291.0417147325" linkRefId="1050_1050X"/>
    <stopFacility id="1052" x="3430421.340782949" y="1880118.9386039963" linkRefId="1052_1052X"/>
    <stopFacility id="1054" x="3427478.241988141" y="1880718.460890678" linkRefId="1054_1054X"/>
    <stopFacility id="1055" x="3427799.242440679" y="1881139.1400949582" linkRefId="1055_1055X"/>
    <stopFacility id="1057" x="3427925.351293718" y="1881372.5656722384" linkRefId="1057_1057X"/>
    <stopFacility id="1060" x="3426747.454709393" y="1883805.4940984708" linkRefId="1060_1060X"/>
    <stopFacility id="1061" x="3426523.730144208" y="1883787.3494194867" linkRefId="1061_1061X"/>
    <stopFacility id="1062" x="3426217.845536979" y="1883746.497721858" linkRefId="1062_1062X"/>
    <stopFacility id="1067" x="3425044.9188877433" y="1884112.8058742872" linkRefId="1067_1067X"/>
    <stopFacility id="1080" x="3426874.0029633436" y="1883281.3683530123" linkRefId="1080_1080X"/>
    <stopFacility id="1083" x="3427719.704930943" y="1881148.162252389" linkRefId="1083_1083X"/>
    <stopFacility id="1085" x="3427643.5866549797" y="1880865.6732038355" linkRefId="1085_1085X"/>
    <stopFacility id="1091" x="3425573.7971672867" y="1878953.9846647095" linkRefId="1091_1091X"/>
    <stopFacility id="1096" x="3428766.961188366" y="1881472.543161392" linkRefId="1096_1096X"/>
    <stopFacility id="11" x="3430229.437299575" y="1880425.3252789408" linkRefId="11_11X"/>
    <stopFacility id="1109" x="3428095.403232527" y="1880036.089687484" linkRefId="1109_1109X"/>
    <stopFacility id="1110" x="3428215.079922582" y="1880318.6087198397" linkRefId="1110_1110X"/>
    <stopFacility id="1111" x="3428433.120146629" y="1880779.2473374652" linkRefId="1111_1111X"/>
    <stopFacility id="1114" x="3428712.1942846146" y="1881460.0085053607" linkRefId="1114_1114X"/>
    <stopFacility id="1116" x="3428527.261234242" y="1881052.9196576208" linkRefId="1116_1116X"/>
    <stopFacility id="1117" x="3428404.1655760296" y="1880796.0473091966" linkRefId="1117_1117X"/>
    <stopFacility id="1118" x="3428306.121525846" y="1880574.410021437" linkRefId="1118_1118X"/>
    <stopFacility id="1119" x="3428186.401324913" y="1880315.503608355" linkRefId="1119_1119X"/>
    <stopFacility id="112" x="3428632.577946878" y="1881292.7713119797" linkRefId="112_112X"/>
    <stopFacility id="1120" x="3428066.3140003886" y="1880075.3760972254" linkRefId="1120_1120X"/>
    <stopFacility id="1125" x="3426447.9506270792" y="1883604.5800070637" linkRefId="1125_1125X"/>
    <stopFacility id="1126" x="3426408.2239158973" y="1883897.0281891595" linkRefId="1126_1126X"/>
    <stopFacility id="1127" x="3426402.2258799374" y="1884131.0800452586" linkRefId="1127_1127X"/>
    <stopFacility id="1128" x="3426486.6503012795" y="1884122.03600664" linkRefId="1128_1128X"/>
    <stopFacility id="1129" x="3426521.9004857955" y="1883903.408055761" linkRefId="1129_1129X"/>
    <stopFacility id="113" x="3428534.420842834" y="1881205.6341656" linkRefId="113_113X"/>
    <stopFacility id="1130" x="3426339.27617718" y="1883537.2243136428" linkRefId="1130_1130X"/>
    <stopFacility id="1131" x="3426379.120187122" y="1883972.629467171" linkRefId="1131_1131X"/>
    <stopFacility id="1132" x="3426647.6493411036" y="1883991.6987633575" linkRefId="1132_1132X"/>
    <stopFacility id="1133" x="3426797.041600854" y="1883898.3027103012" linkRefId="1133_1133X"/>
    <stopFacility id="1134" x="3429366.0604955545" y="1880683.8361564449" linkRefId="1134_1134X"/>
    <stopFacility id="1136" x="3426258.2647010228" y="1887686.2308394038" linkRefId="1136_1136X"/>
    <stopFacility id="1137" x="3426074.345037293" y="1887492.636443491" linkRefId="1137_1137X"/>
    <stopFacility id="1138" x="3426112.3778114645" y="1887700.8484899583" linkRefId="1138_1138X"/>
    <stopFacility id="1139" x="3426145.3155158455" y="1887833.7178395833" linkRefId="1139_1139X"/>
    <stopFacility id="114" x="3428320.595498125" y="1881320.1046217615" linkRefId="114_114X"/>
    <stopFacility id="1140" x="3425807.54250682" y="1885816.9055707655" linkRefId="1140_1140X"/>
    <stopFacility id="1141" x="3426573.1984010856" y="1878943.4223609515" linkRefId="1141_1141X"/>
    <stopFacility id="1143" x="3426420.045217709" y="1877947.5445955957" linkRefId="1143_1143X"/>
    <stopFacility id="1145" x="3422845.8073648117" y="1885852.5582561695" linkRefId="1145_1145X"/>
    <stopFacility id="1148" x="3427223.721456225" y="1878391.8277557578" linkRefId="1148_1148X"/>
    <stopFacility id="1149" x="3427215.9107792713" y="1878388.7439475323" linkRefId="1149_1149X"/>
    <stopFacility id="115" x="3428320.3680758853" y="1881289.784093559" linkRefId="115_115X"/>
    <stopFacility id="1150" x="3426492.645977266" y="1883994.1892659727" linkRefId="1150_1150X"/>
    <stopFacility id="1151" x="3426752.277014144" y="1883725.2277711015" linkRefId="1151_1151X"/>
    <stopFacility id="1152" x="3425817.6912116036" y="1885805.1509707598" linkRefId="1152_1152X"/>
    <stopFacility id="1153" x="3422253.0013934006" y="1885192.613982589" linkRefId="1153_1153X"/>
    <stopFacility id="1158" x="3430568.682748544" y="1880837.0242278764" linkRefId="1158_1158X"/>
    <stopFacility id="1159" x="3430620.893027664" y="1881226.2121285642" linkRefId="1159_1159X"/>
    <stopFacility id="116" x="3428493.5620218534" y="1881192.9511390212" linkRefId="116_116X"/>
    <stopFacility id="1160" x="3430647.0642387816" y="1881442.409657997" linkRefId="1160_1160X"/>
    <stopFacility id="1161" x="3430673.589993963" y="1881688.0440629022" linkRefId="1161_1161X"/>
    <stopFacility id="1162" x="3430659.5195946516" y="1881945.0464138868" linkRefId="1162_1162X"/>
    <stopFacility id="1163" x="3430575.7199209183" y="1881689.4381711758" linkRefId="1163_1163X"/>
    <stopFacility id="1164" x="3430540.9814390517" y="1881449.6689438038" linkRefId="1164_1164X"/>
    <stopFacility id="1165" x="3430514.6681822343" y="1881216.7728905217" linkRefId="1165_1165X"/>
    <stopFacility id="1168" x="3430089.118165789" y="1879741.0558329553" linkRefId="1168_1168X"/>
    <stopFacility id="117" x="3428666.974767708" y="1881278.5587861082" linkRefId="117_117X"/>
    <stopFacility id="1170" x="3424949.6108674984" y="1884556.993722783" linkRefId="1170_1170X"/>
    <stopFacility id="1175" x="3423675.424603764" y="1880123.4524534787" linkRefId="1175_1175X"/>
    <stopFacility id="1176" x="3423598.1229966953" y="1880354.0905983325" linkRefId="1176_1176X"/>
    <stopFacility id="1177" x="3423501.9809799744" y="1880613.001670333" linkRefId="1177_1177X"/>
    <stopFacility id="1183" x="3425047.492273661" y="1883215.302577786" linkRefId="1183_1183X"/>
    <stopFacility id="1184" x="3424821.2815731363" y="1883122.1738521177" linkRefId="1184_1184X"/>
    <stopFacility id="1190" x="3423600.3321973104" y="1880314.5674070562" linkRefId="1190_1190X"/>
    <stopFacility id="1199" x="3426464.6167905154" y="1883485.1791193022" linkRefId="1199_1199X"/>
    <stopFacility id="12" x="3430288.1045866297" y="1880669.819297474" linkRefId="12_12X"/>
    <stopFacility id="1210" x="3429591.6524998657" y="1880651.7866277555" linkRefId="1210_1210X"/>
    <stopFacility id="1211" x="3429454.84973778" y="1880733.368614024" linkRefId="1211_1211X"/>
    <stopFacility id="1217" x="3426411.6892214506" y="1883440.4021372516" linkRefId="1217_1217X"/>
    <stopFacility id="1218" x="3427364.3880834538" y="1881287.5635428235" linkRefId="1218_1218X"/>
    <stopFacility id="1223" x="3423484.9907875126" y="1881080.8553670214" linkRefId="1223_1223X"/>
    <stopFacility id="1225" x="3423537.3057407252" y="1879883.029691679" linkRefId="1225_1225X"/>
    <stopFacility id="1229" x="3427102.9149511675" y="1883924.7592559329" linkRefId="1229_1229X"/>
    <stopFacility id="1231" x="3427418.1623037476" y="1882625.8464048058" linkRefId="1231_1231X"/>
    <stopFacility id="1232" x="3427479.169425591" y="1882728.7232625014" linkRefId="1232_1232X"/>
    <stopFacility id="1233" x="3427569.5130296443" y="1882895.9708679914" linkRefId="1233_1233X"/>
    <stopFacility id="1239" x="3427909.317785942" y="1881815.370736253" linkRefId="1239_1239X"/>
    <stopFacility id="124" x="3429239.3713138355" y="1880848.9570936111" linkRefId="124_124X"/>
    <stopFacility id="1240" x="3427971.863684552" y="1882696.1126521418" linkRefId="1240_1240X"/>
    <stopFacility id="1242" x="3430153.755772882" y="1880231.6341783735" linkRefId="1242_1242X"/>
    <stopFacility id="1243" x="3430114.464332585" y="1880262.067970888" linkRefId="1243_1243X"/>
    <stopFacility id="1245" x="3427167.396353628" y="1881337.312735198" linkRefId="1245_1245X"/>
    <stopFacility id="125" x="3429024.655016501" y="1880969.9019783149" linkRefId="125_125X"/>
    <stopFacility id="1254" x="3424689.6667574067" y="1880943.7481864577" linkRefId="1254_1254X"/>
    <stopFacility id="126" x="3428755.3550648107" y="1881114.6159717124" linkRefId="126_126X"/>
    <stopFacility id="1263" x="3426731.9413382504" y="1881092.5930445222" linkRefId="1263_1263X"/>
    <stopFacility id="1265" x="3424946.826747802" y="1882748.1835750383" linkRefId="1265_1265X"/>
    <stopFacility id="1266" x="3424989.772423216" y="1882785.4336158596" linkRefId="1266_1266X"/>
    <stopFacility id="1268" x="3423488.524631299" y="1881266.4202642834" linkRefId="1268_1268X"/>
    <stopFacility id="127" x="3428722.118889814" y="1881044.0692588103" linkRefId="127_127X"/>
    <stopFacility id="1272" x="3424608.9512371384" y="1882941.4689285723" linkRefId="1272_1272X"/>
    <stopFacility id="1274" x="3423467.9664464677" y="1880974.8455251362" linkRefId="1274_1274X"/>
    <stopFacility id="1277" x="3426841.8933445048" y="1883136.3532334021" linkRefId="1277_1277X"/>
    <stopFacility id="1278" x="3425406.486718706" y="1881199.1876476074" linkRefId="1278_1278X"/>
    <stopFacility id="128" x="3428981.992415887" y="1880891.5294323352" linkRefId="128_128X"/>
    <stopFacility id="1280" x="3426140.702819572" y="1883940.860604786" linkRefId="1280_1280X"/>
    <stopFacility id="1282" x="3428844.650507863" y="1881731.3018750448" linkRefId="1282_1282X"/>
    <stopFacility id="1283" x="3428877.8408579887" y="1881712.0580745302" linkRefId="1283_1283X"/>
    <stopFacility id="1289" x="3426583.7760062423" y="1876290.385986939" linkRefId="1289_1289X"/>
    <stopFacility id="129" x="3429202.4705036012" y="1880771.9966997432" linkRefId="129_129X"/>
    <stopFacility id="1290" x="3426584.2498652777" y="1876333.7370953327" linkRefId="1290_1290X"/>
    <stopFacility id="1295" x="3424402.769580199" y="1882131.7653155313" linkRefId="1295_1295X"/>
    <stopFacility id="1296" x="3424602.251504389" y="1882231.3254615262" linkRefId="1296_1296X"/>
    <stopFacility id="1298" x="3425434.4713668926" y="1881386.5858257776" linkRefId="1298_1298X"/>
    <stopFacility id="13" x="3430336.0233921767" y="1880864.567525943" linkRefId="13_13X"/>
    <stopFacility id="1305" x="3425849.442784205" y="1882328.2899338386" linkRefId="1305_1305X"/>
    <stopFacility id="1306" x="3429862.9117186437" y="1878876.131657963" linkRefId="1306_1306X"/>
    <stopFacility id="1307" x="3423541.7612822037" y="1880785.436373583" linkRefId="1307_1307X"/>
    <stopFacility id="1310" x="3429690.3857653392" y="1877912.4486459407" linkRefId="1310_1310X"/>
    <stopFacility id="1311" x="3425533.938742814" y="1882597.6708566935" linkRefId="1311_1311X"/>
    <stopFacility id="1318" x="3426867.211977532" y="1882619.701256914" linkRefId="1318_1318X"/>
    <stopFacility id="1319" x="3424245.0835253107" y="1884011.5405164007" linkRefId="1319_1319X"/>
    <stopFacility id="1320" x="3424059.8861425584" y="1884052.8467386824" linkRefId="1320_1320X"/>
    <stopFacility id="1321" x="3424108.4735667775" y="1884000.3448997694" linkRefId="1321_1321X"/>
    <stopFacility id="1326" x="3425063.138846014" y="1884608.4493519228" linkRefId="1326_1326X"/>
    <stopFacility id="1329" x="3425892.865663234" y="1886408.0228032907" linkRefId="1329_1329X"/>
    <stopFacility id="1330" x="3424639.5696571297" y="1884112.3412667785" linkRefId="1330_1330X"/>
    <stopFacility id="1331" x="3424723.4249059893" y="1883930.6491103363" linkRefId="1331_1331X"/>
    <stopFacility id="1332" x="3424880.77749993" y="1883674.698230645" linkRefId="1332_1332X"/>
    <stopFacility id="1333" x="3424996.3896527416" y="1883488.2998759327" linkRefId="1333_1333X"/>
    <stopFacility id="1348" x="3424990.060874228" y="1883316.6927411663" linkRefId="1348_1348X"/>
    <stopFacility id="1349" x="3425087.6189310914" y="1879075.019465901" linkRefId="1349_1349X"/>
    <stopFacility id="135" x="3428745.721905785" y="1880580.192613127" linkRefId="135_135X"/>
    <stopFacility id="1350" x="3425167.169713533" y="1879288.6574414393" linkRefId="1350_1350X"/>
    <stopFacility id="1352" x="3426469.8635741314" y="1879254.5799125303" linkRefId="1352_1352X"/>
    <stopFacility id="1353" x="3426234.0520146675" y="1879164.4639207884" linkRefId="1353_1353X"/>
    <stopFacility id="1354" x="3426007.6548698638" y="1879046.152530823" linkRefId="1354_1354X"/>
    <stopFacility id="1355" x="3426069.3909249543" y="1879183.654520294" linkRefId="1355_1355X"/>
    <stopFacility id="1356" x="3426250.6422424833" y="1879129.7496597385" linkRefId="1356_1356X"/>
    <stopFacility id="1357" x="3426521.67186438" y="1879229.6125023873" linkRefId="1357_1357X"/>
    <stopFacility id="136" x="3428519.2577100587" y="1880698.6104956735" linkRefId="136_136X"/>
    <stopFacility id="1361" x="3428940.537222076" y="1881773.6202887925" linkRefId="1361_1361X"/>
    <stopFacility id="1362" x="3427943.1136127086" y="1879807.5807383892" linkRefId="1362_1362X"/>
    <stopFacility id="1363" x="3427290.313191761" y="1880050.164464981" linkRefId="1363_1363X"/>
    <stopFacility id="1364" x="3427312.441065621" y="1880005.7666551755" linkRefId="1364_1364X"/>
    <stopFacility id="1365" x="3427985.060591966" y="1879803.137217906" linkRefId="1365_1365X"/>
    <stopFacility id="1366" x="3422579.404461485" y="1881371.0578474435" linkRefId="1366_1366X"/>
    <stopFacility id="1369" x="3423508.689805653" y="1881122.9430610144" linkRefId="1369_1369X"/>
    <stopFacility id="137" x="3428368.65832567" y="1880781.3857773372" linkRefId="137_137X"/>
    <stopFacility id="1370" x="3423193.7697091997" y="1881143.3305797614" linkRefId="1370_1370X"/>
    <stopFacility id="1374" x="3428835.805033154" y="1877949.5611251579" linkRefId="1374_1374X"/>
    <stopFacility id="1375" x="3429120.0503798607" y="1877868.0866340536" linkRefId="1375_1375X"/>
    <stopFacility id="1376" x="3429286.1249267845" y="1878079.4054992453" linkRefId="1376_1376X"/>
    <stopFacility id="138" x="3428125.094864459" y="1880911.53031098" linkRefId="138_138X"/>
    <stopFacility id="1380" x="3429097.0047753914" y="1877882.718365002" linkRefId="1380_1380X"/>
    <stopFacility id="1381" x="3428824.921322309" y="1877957.5834955939" linkRefId="1381_1381X"/>
    <stopFacility id="1382" x="3427276.4395674076" y="1881869.193505571" linkRefId="1382_1382X"/>
    <stopFacility id="1384" x="3429587.4320031796" y="1880209.379883871" linkRefId="1384_1384X"/>
    <stopFacility id="1385" x="3429650.194891834" y="1880376.754985166" linkRefId="1385_1385X"/>
    <stopFacility id="1386" x="3429601.7712984597" y="1880368.6611263328" linkRefId="1386_1386X"/>
    <stopFacility id="1387" x="3429429.542479021" y="1880218.9010231297" linkRefId="1387_1387X"/>
    <stopFacility id="139" x="3428119.3830503514" y="1880880.6948770103" linkRefId="139_139X"/>
    <stopFacility id="14" x="3430447.683284322" y="1881154.8953337742" linkRefId="14_14X"/>
    <stopFacility id="140" x="3428427.8809971255" y="1880714.975256264" linkRefId="140_140X"/>
    <stopFacility id="1409" x="3429516.50569748" y="1880613.9784324563" linkRefId="1409_1409X"/>
    <stopFacility id="141" x="3428644.212718459" y="1880596.2284075308" linkRefId="141_141X"/>
    <stopFacility id="1410" x="3425644.8106115214" y="1886049.8124283042" linkRefId="1410_1410X"/>
    <stopFacility id="1411" x="3425651.4407828767" y="1886047.4945781836" linkRefId="1411_1411X"/>
    <stopFacility id="1413" x="3424158.682900022" y="1876898.2239312506" linkRefId="1413_1413X"/>
    <stopFacility id="1416" x="3427486.188368948" y="1879285.2619856484" linkRefId="1416_1416X"/>
    <stopFacility id="1417" x="3427222.889545869" y="1879183.9599319682" linkRefId="1417_1417X"/>
    <stopFacility id="1418" x="3427230.99505884" y="1879164.5284129565" linkRefId="1418_1418X"/>
    <stopFacility id="1419" x="3427584.2185963434" y="1879301.3549472347" linkRefId="1419_1419X"/>
    <stopFacility id="1421" x="3424184.359482809" y="1881782.3281423578" linkRefId="1421_1421X"/>
    <stopFacility id="1422" x="3424410.810809724" y="1881809.2217548997" linkRefId="1422_1422X"/>
    <stopFacility id="1423" x="3424700.206201693" y="1881917.2745561074" linkRefId="1423_1423X"/>
    <stopFacility id="1424" x="3424965.5136925317" y="1882015.8050623254" linkRefId="1424_1424X"/>
    <stopFacility id="1425" x="3425544.898605492" y="1882206.4052826923" linkRefId="1425_1425X"/>
    <stopFacility id="1427" x="3427202.0563542238" y="1880497.4298161443" linkRefId="1427_1427X"/>
    <stopFacility id="1428" x="3427296.6849853992" y="1880163.4880953399" linkRefId="1428_1428X"/>
    <stopFacility id="1430" x="3427427.5266516204" y="1880640.1139897415" linkRefId="1430_1430X"/>
    <stopFacility id="1431" x="3424791.223644162" y="1882177.9099382965" linkRefId="1431_1431X"/>
    <stopFacility id="1432" x="3424469.981454241" y="1882050.5939385379" linkRefId="1432_1432X"/>
    <stopFacility id="1435" x="3423458.1173717985" y="1880826.0409382638" linkRefId="1435_1435X"/>
    <stopFacility id="1436" x="3426031.477208494" y="1879516.7467307337" linkRefId="1436_1436X"/>
    <stopFacility id="1438" x="3424256.1992257126" y="1878980.890473864" linkRefId="1438_1438X"/>
    <stopFacility id="144" x="3428322.036927454" y="1880543.383557568" linkRefId="144_144X"/>
    <stopFacility id="1440" x="3424512.4801333053" y="1878744.064685858" linkRefId="1440_1440X"/>
    <stopFacility id="1441" x="3424839.868842185" y="1878598.2193548686" linkRefId="1441_1441X"/>
    <stopFacility id="1442" x="3424842.7397625754" y="1878656.8178073522" linkRefId="1442_1442X"/>
    <stopFacility id="1443" x="3424572.0773357563" y="1878777.0308093592" linkRefId="1443_1443X"/>
    <stopFacility id="1444" x="3424342.1474872637" y="1878965.4711016663" linkRefId="1444_1444X"/>
    <stopFacility id="1448" x="3423819.1509231837" y="1883945.9724022734" linkRefId="1448_1448X"/>
    <stopFacility id="145" x="3428551.5009509088" y="1881035.5822210154" linkRefId="145_145X"/>
    <stopFacility id="1461" x="3427671.5271295384" y="1879901.0498781477" linkRefId="1461_1461X"/>
    <stopFacility id="1462" x="3427646.2612672322" y="1879839.2195802522" linkRefId="1462_1462X"/>
    <stopFacility id="1463" x="3425477.55334712" y="1878565.6581196755" linkRefId="1463_1463X"/>
    <stopFacility id="1464" x="3425560.0265890355" y="1878830.1788113299" linkRefId="1464_1464X"/>
    <stopFacility id="1465" x="3425620.878678571" y="1878999.9217460968" linkRefId="1465_1465X"/>
    <stopFacility id="1472" x="3424240.0369581883" y="1878328.0394391539" linkRefId="1472_1472X"/>
    <stopFacility id="1473" x="3424330.0946203433" y="1878530.3498729593" linkRefId="1473_1473X"/>
    <stopFacility id="1474" x="3424001.2988938056" y="1878645.0071836594" linkRefId="1474_1474X"/>
    <stopFacility id="1475" x="3423874.715239791" y="1878346.3133837509" linkRefId="1475_1475X"/>
    <stopFacility id="1485" x="3426291.852013301" y="1886180.217569048" linkRefId="1485_1485X"/>
    <stopFacility id="1489" x="3428726.389617932" y="1881825.3757933734" linkRefId="1489_1489X"/>
    <stopFacility id="1490" x="3428709.423588864" y="1881907.5281869054" linkRefId="1490_1490X"/>
    <stopFacility id="1492" x="3428663.4100814653" y="1881633.8513993612" linkRefId="1492_1492X"/>
    <stopFacility id="1499" x="3428921.999066299" y="1880455.4957658441" linkRefId="1499_1499X"/>
    <stopFacility id="150" x="3427795.2413420645" y="1880549.7350323515" linkRefId="150_150X"/>
    <stopFacility id="1500" x="3429246.208759385" y="1880282.3180755542" linkRefId="1500_1500X"/>
    <stopFacility id="1501" x="3429413.2064334396" y="1880193.4000397844" linkRefId="1501_1501X"/>
    <stopFacility id="1503" x="3428956.005794191" y="1880470.690521808" linkRefId="1503_1503X"/>
    <stopFacility id="1515" x="3429188.902883066" y="1880348.8359792554" linkRefId="1515_1515X"/>
    <stopFacility id="1518" x="3430374.1089689196" y="1881710.826351009" linkRefId="1518_1518X"/>
    <stopFacility id="1520" x="3425714.0281425617" y="1880941.5568212867" linkRefId="1520_1520X"/>
    <stopFacility id="153" x="3428164.074459533" y="1881240.5446188375" linkRefId="153_153X"/>
    <stopFacility id="1532" x="3428757.1516858423" y="1879462.1337812897" linkRefId="1532_1532X"/>
    <stopFacility id="1533" x="3428523.9687998747" y="1879531.27496673" linkRefId="1533_1533X"/>
    <stopFacility id="1534" x="3428207.984629728" y="1879663.797451639" linkRefId="1534_1534X"/>
    <stopFacility id="1535" x="3428016.311118859" y="1879746.1599022509" linkRefId="1535_1535X"/>
    <stopFacility id="1536" x="3427537.412974593" y="1880098.7570774225" linkRefId="1536_1536X"/>
    <stopFacility id="1537" x="3427505.0635837" y="1880105.3160282958" linkRefId="1537_1537X"/>
    <stopFacility id="1538" x="3428031.5771386405" y="1879683.4598537963" linkRefId="1538_1538X"/>
    <stopFacility id="1539" x="3428304.9693454932" y="1879563.5821297138" linkRefId="1539_1539X"/>
    <stopFacility id="154" x="3428098.9574709116" y="1881436.0773886957" linkRefId="154_154X"/>
    <stopFacility id="1540" x="3428572.566009616" y="1879449.073515803" linkRefId="1540_1540X"/>
    <stopFacility id="1541" x="3428818.345524798" y="1879462.1842080299" linkRefId="1541_1541X"/>
    <stopFacility id="1546" x="3430350.556543231" y="1881981.6701429249" linkRefId="1546_1546X"/>
    <stopFacility id="1547" x="3425038.8591652545" y="1879864.4387856906" linkRefId="1547_1547X"/>
    <stopFacility id="155" x="3427915.3420452583" y="1881565.219858615" linkRefId="155_155X"/>
    <stopFacility id="1550" x="3430183.287369365" y="1881306.7848729924" linkRefId="1550_1550X"/>
    <stopFacility id="1551" x="3430222.4413363747" y="1881088.6283110362" linkRefId="1551_1551X"/>
    <stopFacility id="1552" x="3429751.5394101935" y="1880808.660463076" linkRefId="1552_1552X"/>
    <stopFacility id="1562" x="3426294.9546038434" y="1886187.251356499" linkRefId="1562_1562X"/>
    <stopFacility id="1566" x="3424352.7476818534" y="1883616.0498231766" linkRefId="1566_1566X"/>
    <stopFacility id="157" x="3427806.882902984" y="1881640.6342833426" linkRefId="157_157X"/>
    <stopFacility id="1574" x="3425058.649979703" y="1881998.724299952" linkRefId="1574_1574X"/>
    <stopFacility id="158" x="3427597.157253406" y="1881740.8092817902" linkRefId="158_158X"/>
    <stopFacility id="1584" x="3425419.642500827" y="1882784.034196546" linkRefId="1584_1584X"/>
    <stopFacility id="1585" x="3429605.201465733" y="1878064.5182880105" linkRefId="1585_1585X"/>
    <stopFacility id="1587" x="3430024.575862242" y="1879827.1159012693" linkRefId="1587_1587X"/>
    <stopFacility id="1589" x="3429701.992617467" y="1879502.467412231" linkRefId="1589_1589X"/>
    <stopFacility id="1590" x="3429589.1084434697" y="1879374.6308752415" linkRefId="1590_1590X"/>
    <stopFacility id="1591" x="3429388.405118259" y="1879358.2763986737" linkRefId="1591_1591X"/>
    <stopFacility id="1592" x="3429115.674143266" y="1879422.9903243457" linkRefId="1592_1592X"/>
    <stopFacility id="1593" x="3429124.560752502" y="1879644.5485755198" linkRefId="1593_1593X"/>
    <stopFacility id="1594" x="3428954.735109558" y="1879755.4538974934" linkRefId="1594_1594X"/>
    <stopFacility id="1595" x="3428718.0994907757" y="1879929.9936637827" linkRefId="1595_1595X"/>
    <stopFacility id="1596" x="3428488.8596442537" y="1880078.7804491757" linkRefId="1596_1596X"/>
    <stopFacility id="1597" x="3428244.123959018" y="1880211.085306381" linkRefId="1597_1597X"/>
    <stopFacility id="1598" x="3428003.0279643536" y="1880340.4704073693" linkRefId="1598_1598X"/>
    <stopFacility id="1599" x="3427766.533282029" y="1880429.5229576943" linkRefId="1599_1599X"/>
    <stopFacility id="16" x="3430473.893229365" y="1881475.5257225304" linkRefId="16_16X"/>
    <stopFacility id="160" x="3427327.8308525933" y="1881886.3066443943" linkRefId="160_160X"/>
    <stopFacility id="1602" x="3429316.6786801033" y="1879813.0256844815" linkRefId="1602_1602X"/>
    <stopFacility id="1613" x="3430089.2467327756" y="1879718.9226693623" linkRefId="1613_1613X"/>
    <stopFacility id="1615" x="3427469.9698673426" y="1880647.4276699836" linkRefId="1615_1615X"/>
    <stopFacility id="1616" x="3427794.8766090283" y="1880464.448177055" linkRefId="1616_1616X"/>
    <stopFacility id="1617" x="3428065.398528074" y="1880317.039619051" linkRefId="1617_1617X"/>
    <stopFacility id="1618" x="3428213.667047646" y="1880236.8146690892" linkRefId="1618_1618X"/>
    <stopFacility id="1619" x="3428441.3381412625" y="1880113.9562477153" linkRefId="1619_1619X"/>
    <stopFacility id="162" x="3427150.1887466507" y="1881981.43822016" linkRefId="162_162X"/>
    <stopFacility id="1621" x="3428949.3785683783" y="1879834.968361848" linkRefId="1621_1621X"/>
    <stopFacility id="1622" x="3429165.622266742" y="1879725.1840168198" linkRefId="1622_1622X"/>
    <stopFacility id="1623" x="3429440.7490563835" y="1879570.9039692045" linkRefId="1623_1623X"/>
    <stopFacility id="1624" x="3429650.9141606763" y="1879454.8732903162" linkRefId="1624_1624X"/>
    <stopFacility id="1627" x="3430086.34319621" y="1879813.443608825" linkRefId="1627_1627X"/>
    <stopFacility id="163" x="3427123.7917280104" y="1881895.016204681" linkRefId="163_163X"/>
    <stopFacility id="1630" x="3429029.691055339" y="1879588.8164147832" linkRefId="1630_1630X"/>
    <stopFacility id="1631" x="3429250.0418506865" y="1879681.2935282085" linkRefId="1631_1631X"/>
    <stopFacility id="164" x="3427182.407840283" y="1881921.1731535941" linkRefId="164_164X"/>
    <stopFacility id="1646" x="3427079.357015043" y="1879449.4843383988" linkRefId="1646_1646X"/>
    <stopFacility id="165" x="3427337.332355994" y="1881778.64453784" linkRefId="165_165X"/>
    <stopFacility id="1651" x="3423877.022239713" y="1882121.0794564672" linkRefId="1651_1651X"/>
    <stopFacility id="1652" x="3423917.434969329" y="1882355.0678299926" linkRefId="1652_1652X"/>
    <stopFacility id="1653" x="3424098.5765498914" y="1882869.5601944008" linkRefId="1653_1653X"/>
    <stopFacility id="1654" x="3423932.841720182" y="1883260.6314483883" linkRefId="1654_1654X"/>
    <stopFacility id="1655" x="3423837.326388225" y="1883525.560272694" linkRefId="1655_1655X"/>
    <stopFacility id="1657" x="3423976.407511171" y="1883592.925482709" linkRefId="1657_1657X"/>
    <stopFacility id="1658" x="3423940.687084507" y="1883395.0112960394" linkRefId="1658_1658X"/>
    <stopFacility id="1659" x="3423909.376689789" y="1883252.3288411833" linkRefId="1659_1659X"/>
    <stopFacility id="166" x="3427474.940187118" y="1881704.4441502008" linkRefId="166_166X"/>
    <stopFacility id="1660" x="3424067.779412951" y="1882866.4441071749" linkRefId="1660_1660X"/>
    <stopFacility id="1661" x="3423593.355091611" y="1882124.324283822" linkRefId="1661_1661X"/>